/*--------------------------------*- C++ -*----------------------------------*\
  =========                 |
  \\      /  F ield         | OpenFOAM: The Open Source CFD Toolbox
   \\    /   O peration     | Website:  https://openfoam.org
    \\  /    A nd           | Version:  dev
     \\/     M anipulation  |
\*---------------------------------------------------------------------------*/
FoamFile
{
    format      ascii;
    class       volScalarField;
    location    "0/piston";
    object      T;
}
// * * * * * * * * * * * * * * * * * * * * * * * * * * * * * * * * * * * * * //

dimensions      [ 0 0 0 1 0 0 0 ];

internalField   uniform 300;

boundaryField
{
    piston_to_surronding_air
    {
        type            compressible::turbulentTemperatureCoupledBaffleMixed;
        value           uniform 300;
        Tnbr            T;
        kappaMethod     solidThermo;
    }
    piston_to_water
    {
        type            compressible::turbulentTemperatureCoupledBaffleMixed;
        value           uniform 300;
        Tnbr            T;
        kappaMethod     solidThermo;
    }
}


// ************************************************************************* //
