/*--------------------------------*- C++ -*----------------------------------*\
  =========                 |
  \\      /  F ield         | OpenFOAM: The Open Source CFD Toolbox
   \\    /   O peration     | Website:  https://openfoam.org
    \\  /    A nd           | Version:  dev
     \\/     M anipulation  |
\*---------------------------------------------------------------------------*/
FoamFile
{
    format      ascii;
    class       volScalarField;
    location    "0/shower";
    object      cellToRegion;
}
// * * * * * * * * * * * * * * * * * * * * * * * * * * * * * * * * * * * * * //

dimensions      [];

internalField   uniform 1;

boundaryField
{
    showerOuterWall
    {
        type            zeroGradient;
    }
    showerOutlet
    {
        type            zeroGradient;
    }
    shower_to_water
    {
        type            extrapolatedCalculated;
        value           uniform 0;
    }
}


// ************************************************************************* //
