/*--------------------------------*- C++ -*----------------------------------*\
  =========                 |
  \\      /  F ield         | OpenFOAM: The Open Source CFD Toolbox
   \\    /   O peration     | Website:  https://openfoam.org
    \\  /    A nd           | Version:  dev
     \\/     M anipulation  |
\*---------------------------------------------------------------------------*/
FoamFile
{
    format      ascii;
    class       extendedFeatureEdgeMesh;
    location    "constant/extendedFeatureEdgeMesh";
    object      piston.extendedFeatureEdgeMesh;
}
// * * * * * * * * * * * * * * * * * * * * * * * * * * * * * * * * * * * * * //

// points

128
(
(0 0.039999999 0.105)
(0.0078036129 0.039231408 0.105)
(0.0078036129 0.039231408 0)
(0 0.039999999 0)
(0.015307338 0.036955178 0.105)
(0.015307338 0.036955178 0)
(0.022222809 0.033258785 0.105)
(0.022222809 0.033258785 0)
(0.02828427 0.02828427 0.105)
(0.02828427 0.02828427 0)
(0.033258785 0.022222809 0.105)
(0.033258785 0.022222809 0)
(0.036955178 0.015307338 0.105)
(0.036955178 0.015307338 0)
(0.039231408 0.0078036129 0.105)
(0.039231408 0.0078036129 0)
(0.039999999 0 0.105)
(0.039999999 0 0)
(0.039231408 -0.0078036129 0.105)
(0.039231408 -0.0078036129 0)
(0.036955178 -0.015307338 0.105)
(0.036955178 -0.015307338 0)
(0.033258785 -0.022222809 0.105)
(0.033258785 -0.022222809 0)
(0.02828427 -0.02828427 0.105)
(0.02828427 -0.02828427 0)
(0.022222809 -0.033258785 0.105)
(0.022222809 -0.033258785 0)
(0.015307338 -0.036955178 0.105)
(0.015307338 -0.036955178 0)
(0.0078036129 -0.039231408 0.105)
(0.0078036129 -0.039231408 0)
(0 -0.039999999 0.105)
(0 -0.039999999 0)
(-0.0078036129 -0.039231408 0.105)
(-0.0078036129 -0.039231408 0)
(-0.015307338 -0.036955178 0.105)
(-0.015307338 -0.036955178 0)
(-0.022222809 -0.033258785 0.105)
(-0.022222809 -0.033258785 0)
(-0.02828427 -0.02828427 0.105)
(-0.02828427 -0.02828427 0)
(-0.033258785 -0.022222809 0.105)
(-0.033258785 -0.022222809 0)
(-0.036955178 -0.015307338 0.105)
(-0.036955178 -0.015307338 0)
(-0.039231408 -0.0078036129 0.105)
(-0.039231408 -0.0078036129 0)
(-0.039999999 0 0.105)
(-0.039999999 0 0)
(-0.039231408 0.0078036129 0.105)
(-0.039231408 0.0078036129 0)
(-0.036955178 0.015307338 0.105)
(-0.036955178 0.015307338 0)
(-0.033258785 0.022222809 0.105)
(-0.033258785 0.022222809 0)
(-0.02828427 0.02828427 0.105)
(-0.02828427 0.02828427 0)
(-0.022222809 0.033258785 0.105)
(-0.022222809 0.033258785 0)
(-0.015307338 0.036955178 0.105)
(-0.015307338 0.036955178 0)
(-0.0078036129 0.039231408 0.105)
(-0.018477589 0.007653669 0.105)
(-0.016629392 0.011111405 0.105)
(0.019615704 -0.0039018064 0.105)
(0.018477589 -0.007653669 0.105)
(-0.014142135 0.014142135 0.105)
(-0.011111405 0.016629392 0.105)
(0.02 0 0.105)
(-0.007653669 0.018477589 0.105)
(-0.0039018064 0.019615704 0.105)
(0.019615704 0.0039018064 0.105)
(0.018477589 0.007653669 0.105)
(0 0.02 0.105)
(0.016629392 0.011111405 0.105)
(0.014142135 0.014142135 0.105)
(0.0039018064 0.019615704 0.105)
(0.007653669 0.018477589 0.105)
(0.011111405 0.016629392 0.105)
(0.016629392 -0.011111405 0.105)
(-0.019615704 0.0039018064 0.105)
(0.014142135 -0.014142135 0.105)
(0.011111405 -0.016629392 0.105)
(-0.02 0 0.105)
(-0.019615704 -0.0039018064 0.105)
(0.007653669 -0.018477589 0.105)
(0.0039018064 -0.019615704 0.105)
(-0.018477589 -0.007653669 0.105)
(0 -0.02 0.105)
(-0.016629392 -0.011111405 0.105)
(-0.014142135 -0.014142135 0.105)
(-0.0039018064 -0.019615704 0.105)
(-0.007653669 -0.018477589 0.105)
(-0.011111405 -0.016629392 0.105)
(-0.0078036129 0.039231408 0)
(0 0.02 0.025000002)
(0.0039018064 0.019615704 0.025000002)
(0.007653669 0.018477589 0.025000002)
(0.011111405 0.016629392 0.025000002)
(0.014142135 0.014142135 0.025000002)
(0.016629392 0.011111405 0.025000002)
(0.018477589 0.007653669 0.025000002)
(0.019615704 0.0039018064 0.025000002)
(0.02 0 0.025000002)
(0.019615704 -0.0039018064 0.025000002)
(0.018477589 -0.007653669 0.025000002)
(0.016629392 -0.011111405 0.025000002)
(0.014142135 -0.014142135 0.025000002)
(0.011111405 -0.016629392 0.025000002)
(0.007653669 -0.018477589 0.025000002)
(0.0039018064 -0.019615704 0.025000002)
(0 -0.02 0.025000002)
(-0.0039018064 -0.019615704 0.025000002)
(-0.007653669 -0.018477589 0.025000002)
(-0.011111405 -0.016629392 0.025000002)
(-0.014142135 -0.014142135 0.025000002)
(-0.016629392 -0.011111405 0.025000002)
(-0.018477589 -0.007653669 0.025000002)
(-0.019615704 -0.0039018064 0.025000002)
(-0.02 0 0.025000002)
(-0.019615704 0.0039018064 0.025000002)
(-0.018477589 0.007653669 0.025000002)
(-0.016629392 0.011111405 0.025000002)
(-0.014142135 0.014142135 0.025000002)
(-0.011111405 0.016629392 0.025000002)
(-0.007653669 0.018477589 0.025000002)
(-0.0039018064 0.019615704 0.025000002)
)

// edges

128
(
(0 1)
(2 3)
(1 4)
(5 2)
(4 6)
(7 5)
(6 8)
(9 7)
(8 10)
(11 9)
(10 12)
(13 11)
(12 14)
(15 13)
(14 16)
(17 15)
(16 18)
(19 17)
(18 20)
(21 19)
(20 22)
(23 21)
(22 24)
(25 23)
(24 26)
(27 25)
(26 28)
(29 27)
(28 30)
(31 29)
(30 32)
(33 31)
(32 34)
(35 33)
(34 36)
(37 35)
(36 38)
(39 37)
(38 40)
(41 39)
(40 42)
(43 41)
(42 44)
(45 43)
(44 46)
(47 45)
(46 48)
(49 47)
(48 50)
(51 49)
(50 52)
(53 51)
(52 54)
(55 53)
(54 56)
(57 55)
(56 58)
(59 57)
(58 60)
(61 59)
(62 60)
(63 64)
(0 62)
(65 66)
(64 67)
(67 68)
(69 65)
(68 70)
(70 71)
(72 69)
(73 72)
(71 74)
(75 73)
(76 75)
(74 77)
(77 78)
(79 76)
(78 79)
(66 80)
(81 63)
(80 82)
(82 83)
(84 81)
(85 84)
(83 86)
(86 87)
(88 85)
(87 89)
(90 88)
(91 90)
(89 92)
(92 93)
(94 91)
(93 94)
(95 61)
(3 95)
(96 97)
(97 98)
(98 99)
(99 100)
(100 101)
(101 102)
(102 103)
(103 104)
(104 105)
(105 106)
(106 107)
(107 108)
(108 109)
(109 110)
(110 111)
(111 112)
(112 113)
(113 114)
(114 115)
(115 116)
(116 117)
(117 118)
(118 119)
(119 120)
(120 121)
(121 122)
(122 123)
(123 124)
(124 125)
(125 126)
(126 127)
(127 96)
)

// concaveStart mixedStart nonFeatureStart
0 0 0
// internalStart flatStart openStart multipleStart
96 128 128 128
// normals

210
(
(0.098017385 0.9951847 -0)
(0 0 1)
(0.098017385 0.9951847 0)
(0 0 -1)
(0.29028473 0.95694032 -0)
(0 0 1)
(0.29028473 0.95694032 0)
(0.47139641 0.88192144 -0)
(0.47139641 0.88192144 0)
(0 0 -1)
(0.63439343 0.77301033 -0)
(0 0 1)
(0.63439343 0.77301033 0)
(0.77301033 0.63439343 -0)
(0.77301033 0.63439343 0)
(0 0 -1)
(0.88192144 0.47139641 -0)
(0 0 1)
(0.88192144 0.47139641 0)
(0.95694032 0.29028473 -0)
(0.95694032 0.29028473 0)
(0 0 -1)
(0.9951847 0.098017385 -0)
(0 0 1)
(0.9951847 0.098017385 0)
(0.9951847 -0.098017385 0)
(0.9951847 -0.098017385 0)
(0 0 -1)
(0.95694032 -0.29028473 0)
(0 0 1)
(0.95694032 -0.29028473 0)
(0.88192144 -0.47139641 0)
(0 -0 1)
(0.88192144 -0.47139641 0)
(0 0 -1)
(0.77301033 -0.63439343 0)
(0 0 1)
(0.77301033 -0.63439343 0)
(0.63439343 -0.77301033 0)
(0.63439343 -0.77301033 0)
(0 0 -1)
(0.47139641 -0.88192144 0)
(0 0 1)
(0.47139641 -0.88192144 0)
(0.29028473 -0.95694032 0)
(0.29028473 -0.95694032 0)
(0 0 -1)
(0.098017385 -0.9951847 0)
(-0 0 1)
(0.098017385 -0.9951847 0)
(-0.098017385 -0.9951847 0)
(-0.098017385 -0.9951847 0)
(0 0 -1)
(-0.29028473 -0.95694032 0)
(0 0 1)
(-0.29028473 -0.95694032 0)
(-0.47139641 -0.88192144 0)
(-0.47139641 -0.88192144 0)
(0 0 -1)
(-0.63439343 -0.77301033 0)
(0 0 1)
(-0.63439343 -0.77301033 0)
(-0.77301033 -0.63439343 0)
(-0.77301033 -0.63439343 0)
(0 0 -1)
(-0.88192144 -0.47139641 0)
(0 0 1)
(-0.88192144 -0.47139641 0)
(-0.95694032 -0.29028473 0)
(-0.95694032 -0.29028473 0)
(0 0 -1)
(-0.9951847 -0.098017385 0)
(0 0 1)
(-0.9951847 -0.098017385 0)
(-0.9951847 0.098017385 0)
(-0.9951847 0.098017385 0)
(0 0 -1)
(-0.95694032 0.29028473 0)
(0 0 1)
(-0.95694032 0.29028473 0)
(-0.88192144 0.47139641 0)
(0 0 1)
(-0.88192144 0.47139641 0)
(0 0 -1)
(-0.77301033 0.63439343 0)
(0 0 1)
(-0.77301033 0.63439343 0)
(-0.63439343 0.77301033 0)
(-0.63439343 0.77301033 0)
(0 0 -1)
(-0.47139641 0.88192144 0)
(0 0 1)
(-0.47139641 0.88192144 0)
(-0.29028473 0.95694032 0)
(0 0 1)
(0.88192144 -0.47139641 0)
(-0.098017385 0.9951847 0)
(0 0 1)
(-0.95694032 0.29028473 0)
(0 0 1)
(0.77301033 -0.63439343 0)
(0 0 1)
(0.63439343 -0.77301033 0)
(-0 0 1)
(-0.9951847 0.098017385 0)
(0 0 1)
(0.47139641 -0.88192144 0)
(0 0 1)
(0.29028473 -0.95694032 0)
(-0 0 1)
(-0.9951847 -0.098017385 0)
(-0 0 1)
(-0.95694032 -0.29028473 0)
(0 0 1)
(0.098017385 -0.9951847 0)
(-0 0 1)
(-0.88192144 -0.47139641 0)
(-0 0 1)
(-0.77301033 -0.63439343 0)
(0 0 1)
(-0.098017385 -0.9951847 0)
(0 0 1)
(-0.29028473 -0.95694032 0)
(-0 0 1)
(-0.63439343 -0.77301033 0)
(-0 0 1)
(-0.47139641 -0.88192144 0)
(0 0 1)
(-0.88192144 0.47139641 0)
(0 -0 1)
(0.95694032 -0.29028473 0)
(0 0 1)
(-0.77301033 0.63439343 0)
(0 0 1)
(-0.63439343 0.77301033 0)
(0 -0 1)
(0.9951847 -0.098017385 0)
(0 0 1)
(0.9951847 0.098017385 0)
(0 0 1)
(-0.47139641 0.88192144 0)
(0 0 1)
(-0.29028473 0.95694032 0)
(0 0 1)
(0.95694032 0.29028473 0)
(0 0 1)
(-0.098017385 0.9951847 0)
(0 0 1)
(0.88192144 0.47139641 0)
(0 0 1)
(0.77301033 0.63439343 0)
(0 0 1)
(0.098017385 0.9951847 0)
(0 0 1)
(0.29028473 0.95694032 0)
(0 0 1)
(0.63439343 0.77301033 0)
(0 0 1)
(0.47139641 0.88192144 0)
(-0.29028473 0.95694032 0)
(0 0 -1)
(-0.098017385 0.9951847 0)
(-0.098017385 -0.9951847 -0)
(0 0 1)
(-0.29028473 -0.95694032 -0)
(-0.47139641 -0.88192144 -0)
(0 0 1)
(-0.63439343 -0.77301033 -0)
(-0.77301033 -0.63439343 -0)
(0 0 1)
(-0.88192144 -0.47139641 -0)
(-0.95694032 -0.29028473 -0)
(0 0 1)
(-0.9951847 -0.098017385 -0)
(-0.9951847 0.098017385 0)
(0 0 1)
(-0.95694032 0.29028473 0)
(-0.88192144 0.47139641 0)
(0 0 1)
(-0.77301033 0.63439343 0)
(-0.63439343 0.77301033 0)
(0 0 1)
(-0.47139641 0.88192144 0)
(-0.29028473 0.95694032 0)
(0 0 1)
(-0.098017385 0.9951847 0)
(0.098017385 0.9951847 0)
(0 0 1)
(0.29028473 0.95694032 0)
(0.47139641 0.88192144 0)
(0 0 1)
(0.63439343 0.77301033 0)
(0.77301033 0.63439343 0)
(0 0 1)
(0.88192144 0.47139641 0)
(0.95694032 0.29028473 0)
(0 0 1)
(0.9951847 0.098017385 0)
(0.9951847 -0.098017385 0)
(0 0 1)
(0.95694032 -0.29028473 0)
(0.88192144 -0.47139641 0)
(0 0 1)
(0.77301033 -0.63439343 0)
(0.63439343 -0.77301033 0)
(0 0 1)
(0.47139641 -0.88192144 0)
(0.29028473 -0.95694032 0)
(0 0 1)
(0.098017385 -0.9951847 0)
)

// normal volume types

210
(
0
0
0
0
0
0
0
0
0
0
0
0
0
0
0
0
0
0
0
0
0
0
0
0
0
0
0
0
0
0
0
0
0
0
0
0
0
0
0
0
0
0
0
0
0
0
0
0
0
0
0
0
0
0
0
0
0
0
0
0
0
0
0
0
0
0
0
0
0
0
0
0
0
0
0
0
0
0
0
0
0
0
0
0
0
0
0
0
0
0
0
0
0
0
0
0
0
0
0
0
0
0
0
0
0
0
0
0
0
0
0
0
0
0
0
0
0
0
0
0
0
0
0
0
0
0
0
0
0
0
0
0
0
0
0
0
0
0
0
0
0
0
0
0
0
0
0
0
0
0
0
0
0
0
0
0
0
0
0
0
0
0
0
0
0
0
0
0
0
0
0
0
0
0
0
0
0
0
0
0
0
0
0
0
0
0
0
0
0
0
0
0
0
0
0
0
0
0
0
0
0
0
0
0
0
0
0
0
0
0
)

// normalDirections

128
(
2(1 -1)
2(1 -1)
2(1 -1)
2(1 -1)
2(1 -1)
2(1 -1)
2(1 -1)
2(1 -1)
2(1 -1)
2(1 -1)
2(1 -1)
2(1 -1)
2(1 -1)
2(1 -1)
2(1 -1)
2(1 -1)
2(1 -1)
2(1 -1)
2(1 -1)
2(1 -1)
2(1 -1)
2(1 -1)
2(1 -1)
2(1 -1)
2(1 -1)
2(1 -1)
2(1 -1)
2(1 -1)
2(1 -1)
2(1 -1)
2(1 -1)
2(1 -1)
2(1 -1)
2(1 -1)
2(1 -1)
2(1 -1)
2(1 -1)
2(1 -1)
2(1 -1)
2(1 -1)
2(1 -1)
2(1 -1)
2(1 -1)
2(1 -1)
2(1 -1)
2(1 -1)
2(1 -1)
2(1 -1)
2(1 -1)
2(1 -1)
2(1 -1)
2(1 -1)
2(1 -1)
2(1 -1)
2(1 -1)
2(1 -1)
2(1 -1)
2(1 -1)
2(1 -1)
2(1 -1)
2(1 -1)
2(1 -1)
2(1 -1)
2(1 -1)
2(1 -1)
2(1 -1)
2(1 -1)
2(1 -1)
2(1 -1)
2(1 -1)
2(1 -1)
2(1 -1)
2(1 -1)
2(1 -1)
2(1 -1)
2(1 -1)
2(1 -1)
2(1 -1)
2(1 -1)
2(1 -1)
2(1 -1)
2(1 -1)
2(1 -1)
2(1 -1)
2(1 -1)
2(1 -1)
2(1 -1)
2(1 -1)
2(1 -1)
2(1 -1)
2(1 -1)
2(1 -1)
2(1 -1)
2(1 -1)
2(1 -1)
2(1 -1)
2(1 -1)
2(1 -1)
2(1 -1)
2(1 -1)
2(1 -1)
2(1 -1)
2(1 -1)
2(1 -1)
2(1 -1)
2(1 -1)
2(1 -1)
2(1 -1)
2(1 -1)
2(1 -1)
2(1 -1)
2(1 -1)
2(1 -1)
2(1 -1)
2(1 -1)
2(1 -1)
2(1 -1)
2(1 -1)
2(1 -1)
2(1 -1)
2(1 -1)
2(1 -1)
2(1 -1)
2(1 -1)
2(1 -1)
2(1 -1)
2(1 -1)
2(1 -1)
)

// edgeNormals

128
(
2(0 1)
2(2 3)
2(4 5)
2(6 3)
2(7 5)
2(8 9)
2(10 11)
2(12 9)
2(13 11)
2(14 15)
2(16 17)
2(18 15)
2(19 17)
2(20 21)
2(22 23)
2(24 21)
2(25 23)
2(26 27)
2(28 29)
2(30 27)
2(31 32)
2(33 34)
2(35 36)
2(37 34)
2(38 36)
2(39 40)
2(41 42)
2(43 40)
2(44 42)
2(45 46)
2(47 48)
2(49 46)
2(50 48)
2(51 52)
2(53 54)
2(55 52)
2(56 54)
2(57 58)
2(59 60)
2(61 58)
2(62 60)
2(63 64)
2(65 66)
2(67 64)
2(68 66)
2(69 70)
2(71 72)
2(73 70)
2(74 72)
2(75 76)
2(77 78)
2(79 76)
2(80 81)
2(82 83)
2(84 85)
2(86 83)
2(87 85)
2(88 89)
2(90 91)
2(92 89)
2(91 93)
2(94 95)
2(1 96)
2(97 98)
2(99 100)
2(101 102)
2(103 104)
2(105 106)
2(107 108)
2(109 110)
2(111 112)
2(113 114)
2(115 116)
2(117 118)
2(119 120)
2(121 122)
2(123 124)
2(125 126)
2(127 128)
2(129 130)
2(131 132)
2(133 134)
2(135 136)
2(137 138)
2(139 140)
2(141 142)
2(143 144)
2(145 146)
2(147 148)
2(149 150)
2(151 152)
2(153 154)
2(155 156)
2(157 158)
2(159 160)
2(161 160)
2(162 163)
2(164 163)
2(165 166)
2(167 166)
2(168 169)
2(170 169)
2(171 172)
2(173 172)
2(174 175)
2(176 175)
2(177 178)
2(179 178)
2(180 181)
2(182 181)
2(183 184)
2(185 184)
2(186 187)
2(188 187)
2(189 190)
2(191 190)
2(192 193)
2(194 193)
2(195 196)
2(197 196)
2(198 199)
2(200 199)
2(201 202)
2(203 202)
2(204 205)
2(206 205)
2(207 208)
2(209 208)
)

// featurePointNormals
0()
// featurePointEdges
0()
// regionEdges
0()


// ************************************************************************* //
