/*--------------------------------*- C++ -*----------------------------------*\
  =========                 |
  \\      /  F ield         | OpenFOAM: The Open Source CFD Toolbox
   \\    /   O peration     | Website:  https://openfoam.org
    \\  /    A nd           | Version:  dev
     \\/     M anipulation  |
\*---------------------------------------------------------------------------*/
FoamFile
{
    format      ascii;
    class       featureEdgeMesh;
    location    "constant/triSurface";
    object      piston.eMesh;
}
// * * * * * * * * * * * * * * * * * * * * * * * * * * * * * * * * * * * * * //


// points:

128
(
(0 0.039999999 0.105)
(0.0078036129 0.039231408 0.105)
(0.0078036129 0.039231408 0)
(0 0.039999999 0)
(0.015307338 0.036955178 0.105)
(0.015307338 0.036955178 0)
(0.022222809 0.033258785 0.105)
(0.022222809 0.033258785 0)
(0.02828427 0.02828427 0.105)
(0.02828427 0.02828427 0)
(0.033258785 0.022222809 0.105)
(0.033258785 0.022222809 0)
(0.036955178 0.015307338 0.105)
(0.036955178 0.015307338 0)
(0.039231408 0.0078036129 0.105)
(0.039231408 0.0078036129 0)
(0.039999999 0 0.105)
(0.039999999 0 0)
(0.039231408 -0.0078036129 0.105)
(0.039231408 -0.0078036129 0)
(0.036955178 -0.015307338 0.105)
(0.036955178 -0.015307338 0)
(0.033258785 -0.022222809 0.105)
(0.033258785 -0.022222809 0)
(0.02828427 -0.02828427 0.105)
(0.02828427 -0.02828427 0)
(0.022222809 -0.033258785 0.105)
(0.022222809 -0.033258785 0)
(0.015307338 -0.036955178 0.105)
(0.015307338 -0.036955178 0)
(0.0078036129 -0.039231408 0.105)
(0.0078036129 -0.039231408 0)
(0 -0.039999999 0.105)
(0 -0.039999999 0)
(-0.0078036129 -0.039231408 0.105)
(-0.0078036129 -0.039231408 0)
(-0.015307338 -0.036955178 0.105)
(-0.015307338 -0.036955178 0)
(-0.022222809 -0.033258785 0.105)
(-0.022222809 -0.033258785 0)
(-0.02828427 -0.02828427 0.105)
(-0.02828427 -0.02828427 0)
(-0.033258785 -0.022222809 0.105)
(-0.033258785 -0.022222809 0)
(-0.036955178 -0.015307338 0.105)
(-0.036955178 -0.015307338 0)
(-0.039231408 -0.0078036129 0.105)
(-0.039231408 -0.0078036129 0)
(-0.039999999 0 0.105)
(-0.039999999 0 0)
(-0.039231408 0.0078036129 0.105)
(-0.039231408 0.0078036129 0)
(-0.036955178 0.015307338 0.105)
(-0.036955178 0.015307338 0)
(-0.033258785 0.022222809 0.105)
(-0.033258785 0.022222809 0)
(-0.02828427 0.02828427 0.105)
(-0.02828427 0.02828427 0)
(-0.022222809 0.033258785 0.105)
(-0.022222809 0.033258785 0)
(-0.015307338 0.036955178 0.105)
(-0.015307338 0.036955178 0)
(-0.0078036129 0.039231408 0.105)
(-0.018477589 0.007653669 0.105)
(-0.016629392 0.011111405 0.105)
(0.019615704 -0.0039018064 0.105)
(0.018477589 -0.007653669 0.105)
(-0.014142135 0.014142135 0.105)
(-0.011111405 0.016629392 0.105)
(0.02 0 0.105)
(-0.007653669 0.018477589 0.105)
(-0.0039018064 0.019615704 0.105)
(0.019615704 0.0039018064 0.105)
(0.018477589 0.007653669 0.105)
(0 0.02 0.105)
(0.016629392 0.011111405 0.105)
(0.014142135 0.014142135 0.105)
(0.0039018064 0.019615704 0.105)
(0.007653669 0.018477589 0.105)
(0.011111405 0.016629392 0.105)
(0.016629392 -0.011111405 0.105)
(-0.019615704 0.0039018064 0.105)
(0.014142135 -0.014142135 0.105)
(0.011111405 -0.016629392 0.105)
(-0.02 0 0.105)
(-0.019615704 -0.0039018064 0.105)
(0.007653669 -0.018477589 0.105)
(0.0039018064 -0.019615704 0.105)
(-0.018477589 -0.007653669 0.105)
(0 -0.02 0.105)
(-0.016629392 -0.011111405 0.105)
(-0.014142135 -0.014142135 0.105)
(-0.0039018064 -0.019615704 0.105)
(-0.007653669 -0.018477589 0.105)
(-0.011111405 -0.016629392 0.105)
(-0.0078036129 0.039231408 0)
(0 0.02 0.025000002)
(0.0039018064 0.019615704 0.025000002)
(0.007653669 0.018477589 0.025000002)
(0.011111405 0.016629392 0.025000002)
(0.014142135 0.014142135 0.025000002)
(0.016629392 0.011111405 0.025000002)
(0.018477589 0.007653669 0.025000002)
(0.019615704 0.0039018064 0.025000002)
(0.02 0 0.025000002)
(0.019615704 -0.0039018064 0.025000002)
(0.018477589 -0.007653669 0.025000002)
(0.016629392 -0.011111405 0.025000002)
(0.014142135 -0.014142135 0.025000002)
(0.011111405 -0.016629392 0.025000002)
(0.007653669 -0.018477589 0.025000002)
(0.0039018064 -0.019615704 0.025000002)
(0 -0.02 0.025000002)
(-0.0039018064 -0.019615704 0.025000002)
(-0.007653669 -0.018477589 0.025000002)
(-0.011111405 -0.016629392 0.025000002)
(-0.014142135 -0.014142135 0.025000002)
(-0.016629392 -0.011111405 0.025000002)
(-0.018477589 -0.007653669 0.025000002)
(-0.019615704 -0.0039018064 0.025000002)
(-0.02 0 0.025000002)
(-0.019615704 0.0039018064 0.025000002)
(-0.018477589 0.007653669 0.025000002)
(-0.016629392 0.011111405 0.025000002)
(-0.014142135 0.014142135 0.025000002)
(-0.011111405 0.016629392 0.025000002)
(-0.007653669 0.018477589 0.025000002)
(-0.0039018064 0.019615704 0.025000002)
)


// edges:

128
(
(0 1)
(2 3)
(1 4)
(5 2)
(4 6)
(7 5)
(6 8)
(9 7)
(8 10)
(11 9)
(10 12)
(13 11)
(12 14)
(15 13)
(14 16)
(17 15)
(16 18)
(19 17)
(18 20)
(21 19)
(20 22)
(23 21)
(22 24)
(25 23)
(24 26)
(27 25)
(26 28)
(29 27)
(28 30)
(31 29)
(30 32)
(33 31)
(32 34)
(35 33)
(34 36)
(37 35)
(36 38)
(39 37)
(38 40)
(41 39)
(40 42)
(43 41)
(42 44)
(45 43)
(44 46)
(47 45)
(46 48)
(49 47)
(48 50)
(51 49)
(50 52)
(53 51)
(52 54)
(55 53)
(54 56)
(57 55)
(56 58)
(59 57)
(58 60)
(61 59)
(62 60)
(63 64)
(0 62)
(65 66)
(64 67)
(67 68)
(69 65)
(68 70)
(70 71)
(72 69)
(73 72)
(71 74)
(75 73)
(76 75)
(74 77)
(77 78)
(79 76)
(78 79)
(66 80)
(81 63)
(80 82)
(82 83)
(84 81)
(85 84)
(83 86)
(86 87)
(88 85)
(87 89)
(90 88)
(91 90)
(89 92)
(92 93)
(94 91)
(93 94)
(95 61)
(3 95)
(96 97)
(97 98)
(98 99)
(99 100)
(100 101)
(101 102)
(102 103)
(103 104)
(104 105)
(105 106)
(106 107)
(107 108)
(108 109)
(109 110)
(110 111)
(111 112)
(112 113)
(113 114)
(114 115)
(115 116)
(116 117)
(117 118)
(118 119)
(119 120)
(120 121)
(121 122)
(122 123)
(123 124)
(124 125)
(125 126)
(126 127)
(127 96)
)

// * * * * * * * * * * * * * * * * * * * * * * * * * * * * * * * * * * * * * //


// ************************************************************************* //
