/*--------------------------------*- C++ -*----------------------------------*\
  =========                 |
  \\      /  F ield         | OpenFOAM: The Open Source CFD Toolbox
   \\    /   O peration     | Website:  https://openfoam.org
    \\  /    A nd           | Version:  dev
     \\/     M anipulation  |
\*---------------------------------------------------------------------------*/
FoamFile
{
    format      ascii;
    class       featureEdgeMesh;
    location    "constant/triSurface";
    object      water.eMesh;
}
// * * * * * * * * * * * * * * * * * * * * * * * * * * * * * * * * * * * * * //


// points:

64
(
(0 0.02 0.105)
(0.0039018064 0.019615704 0.105)
(0.0039018064 0.019615704 0.024999999)
(0 0.02 0.024999999)
(0.007653669 0.018477589 0.105)
(0.007653669 0.018477589 0.024999999)
(0.011111405 0.016629392 0.105)
(0.011111405 0.016629392 0.024999999)
(0.014142135 0.014142135 0.105)
(0.014142135 0.014142135 0.024999999)
(0.016629392 0.011111405 0.105)
(0.016629392 0.011111405 0.024999999)
(0.018477589 0.007653669 0.105)
(0.018477589 0.007653669 0.024999999)
(0.019615704 0.0039018064 0.105)
(0.019615704 0.0039018064 0.024999999)
(0.02 0 0.105)
(0.02 0 0.024999999)
(0.019615704 -0.0039018064 0.105)
(0.019615704 -0.0039018064 0.024999999)
(0.018477589 -0.007653669 0.105)
(0.018477589 -0.007653669 0.024999999)
(0.016629392 -0.011111405 0.105)
(0.016629392 -0.011111405 0.024999999)
(0.014142135 -0.014142135 0.105)
(0.014142135 -0.014142135 0.024999999)
(0.011111405 -0.016629392 0.105)
(0.011111405 -0.016629392 0.024999999)
(0.007653669 -0.018477589 0.105)
(0.007653669 -0.018477589 0.024999999)
(0.0039018064 -0.019615704 0.105)
(0.0039018064 -0.019615704 0.024999999)
(0 -0.02 0.105)
(0 -0.02 0.024999999)
(-0.0039018064 -0.019615704 0.105)
(-0.0039018064 -0.019615704 0.024999999)
(-0.007653669 -0.018477589 0.105)
(-0.007653669 -0.018477589 0.024999999)
(-0.011111405 -0.016629392 0.105)
(-0.011111405 -0.016629392 0.024999999)
(-0.014142135 -0.014142135 0.105)
(-0.014142135 -0.014142135 0.024999999)
(-0.016629392 -0.011111405 0.105)
(-0.016629392 -0.011111405 0.024999999)
(-0.018477589 -0.007653669 0.105)
(-0.018477589 -0.007653669 0.024999999)
(-0.019615704 -0.0039018064 0.105)
(-0.019615704 -0.0039018064 0.024999999)
(-0.02 0 0.105)
(-0.02 0 0.024999999)
(-0.019615704 0.0039018064 0.105)
(-0.019615704 0.0039018064 0.024999999)
(-0.018477589 0.007653669 0.105)
(-0.018477589 0.007653669 0.024999999)
(-0.016629392 0.011111405 0.105)
(-0.016629392 0.011111405 0.024999999)
(-0.014142135 0.014142135 0.105)
(-0.014142135 0.014142135 0.024999999)
(-0.011111405 0.016629392 0.105)
(-0.011111405 0.016629392 0.024999999)
(-0.007653669 0.018477589 0.105)
(-0.007653669 0.018477589 0.024999999)
(-0.0039018064 0.019615704 0.105)
(-0.0039018064 0.019615704 0.024999999)
)


// edges:

64
(
(0 1)
(2 3)
(1 4)
(5 2)
(4 6)
(7 5)
(6 8)
(9 7)
(8 10)
(11 9)
(10 12)
(13 11)
(12 14)
(15 13)
(14 16)
(17 15)
(16 18)
(19 17)
(18 20)
(21 19)
(20 22)
(23 21)
(22 24)
(25 23)
(24 26)
(27 25)
(26 28)
(29 27)
(28 30)
(31 29)
(30 32)
(33 31)
(32 34)
(35 33)
(34 36)
(37 35)
(36 38)
(39 37)
(38 40)
(41 39)
(40 42)
(43 41)
(42 44)
(45 43)
(44 46)
(47 45)
(46 48)
(49 47)
(48 50)
(51 49)
(50 52)
(53 51)
(52 54)
(55 53)
(54 56)
(57 55)
(56 58)
(59 57)
(58 60)
(61 59)
(62 60)
(0 62)
(63 61)
(3 63)
)

// * * * * * * * * * * * * * * * * * * * * * * * * * * * * * * * * * * * * * //


// ************************************************************************* //
