/*--------------------------------*- C++ -*----------------------------------*\
  =========                 |
  \\      /  F ield         | OpenFOAM: The Open Source CFD Toolbox
   \\    /   O peration     | Website:  https://openfoam.org
    \\  /    A nd           | Version:  dev
     \\/     M anipulation  |
\*---------------------------------------------------------------------------*/
FoamFile
{
    format      ascii;
    class       featureEdgeMesh;
    location    "constant/triSurface";
    object      piston.eMesh;
}
// * * * * * * * * * * * * * * * * * * * * * * * * * * * * * * * * * * * * * //


// points:

320
(
(0 0.037999999 0.044999998)
(0.007413432 0.037269838 0.044999998)
(0.007413432 0.037269838 -0.044999998)
(0 0.037999999 -0.044999998)
(0.014541971 0.035107423 0.044999998)
(0.014541971 0.035107423 -0.044999998)
(0.021111669 0.031595845 0.044999998)
(0.021111669 0.031595845 -0.044999998)
(0.026870057 0.026870057 0.044999998)
(0.026870057 0.026870057 -0.044999998)
(0.031595845 0.021111669 0.044999998)
(0.031595845 0.021111669 -0.044999998)
(0.035107423 0.014541971 0.044999998)
(0.035107423 0.014541971 -0.044999998)
(0.037269838 0.007413432 0.044999998)
(0.037269838 0.007413432 -0.044999998)
(0.037999999 0 0.044999998)
(0.037999999 0 -0.044999998)
(0.037269838 -0.007413432 0.044999998)
(0.037269838 -0.007413432 -0.044999998)
(0.035107423 -0.014541971 0.044999998)
(0.035107423 -0.014541971 -0.044999998)
(0.031595845 -0.021111669 0.044999998)
(0.031595845 -0.021111669 -0.044999998)
(0.026870057 -0.026870057 0.044999998)
(0.026870057 -0.026870057 -0.044999998)
(0.021111669 -0.031595845 0.044999998)
(0.021111669 -0.031595845 -0.044999998)
(0.014541971 -0.035107423 0.044999998)
(0.014541971 -0.035107423 -0.044999998)
(0.007413432 -0.037269838 0.044999998)
(0.007413432 -0.037269838 -0.044999998)
(0 -0.037999999 0.044999998)
(0 -0.037999999 -0.044999998)
(-0.007413432 -0.037269838 0.044999998)
(-0.007413432 -0.037269838 -0.044999998)
(-0.014541971 -0.035107423 0.044999998)
(-0.014541971 -0.035107423 -0.044999998)
(-0.021111669 -0.031595845 0.044999998)
(-0.021111669 -0.031595845 -0.044999998)
(-0.026870057 -0.026870057 0.044999998)
(-0.026870057 -0.026870057 -0.044999998)
(-0.031595845 -0.021111669 0.044999998)
(-0.031595845 -0.021111669 -0.044999998)
(-0.035107423 -0.014541971 0.044999998)
(-0.035107423 -0.014541971 -0.044999998)
(-0.037269838 -0.007413432 0.044999998)
(-0.037269838 -0.007413432 -0.044999998)
(-0.037999999 0 0.044999998)
(-0.037999999 0 -0.044999998)
(-0.037269838 0.007413432 0.044999998)
(-0.037269838 0.007413432 -0.044999998)
(-0.035107423 0.014541971 0.044999998)
(-0.035107423 0.014541971 -0.044999998)
(-0.031595845 0.021111669 0.044999998)
(-0.031595845 0.021111669 -0.044999998)
(-0.026870057 0.026870057 0.044999998)
(-0.026870057 0.026870057 -0.044999998)
(-0.021111669 0.031595845 0.044999998)
(-0.021111669 0.031595845 -0.044999998)
(-0.014541971 0.035107423 0.044999998)
(-0.014541971 0.035107423 -0.044999998)
(-0.007413432 0.037269838 0.044999998)
(0.018708561 -0.0077493405 0.044999998)
(0.01683726 -0.011250298 0.044999998)
(0.0039505791 0.019860903 0.044999998)
(0.0077493405 0.018708561 0.044999998)
(0.014318911 -0.014318911 0.044999998)
(0.011250298 -0.01683726 0.044999998)
(0 0.02025 0.044999998)
(-0.0039505791 0.019860903 0.044999998)
(0.0077493405 -0.018708561 0.044999998)
(0.0039505791 -0.019860903 0.044999998)
(-0.0077493405 0.018708561 0.044999998)
(0 -0.02025 0.044999998)
(-0.011250298 0.01683726 0.044999998)
(-0.014318911 0.014318911 0.044999998)
(-0.0039505791 -0.019860903 0.044999998)
(-0.0077493405 -0.018708561 0.044999998)
(-0.01683726 0.011250298 0.044999998)
(-0.018708561 0.0077493405 0.044999998)
(-0.011250298 -0.01683726 0.044999998)
(-0.014318911 -0.014318911 0.044999998)
(-0.019860903 0.0039505791 0.044999998)
(-0.02025 0 0.044999998)
(-0.01683726 -0.011250298 0.044999998)
(-0.018708561 -0.0077493405 0.044999998)
(-0.019860903 -0.0039505791 0.044999998)
(0.011250298 0.01683726 0.044999998)
(0.019860903 -0.0039505791 0.044999998)
(0.02025 0 0.044999998)
(0.014318911 0.014318911 0.044999998)
(0.019860903 0.0039505791 0.044999998)
(0.01683726 0.011250298 0.044999998)
(0.018708561 0.0077493405 0.044999998)
(-0.007413432 0.037269838 -0.044999998)
(0.014157438 -0.034179073 -0.059999999)
(0.02055341 -0.030760352 -0.059999999)
(-0.026752273 -0.011081156 -0.059999999)
(-0.02840006 -0.0056491243 -0.059999999)
(0.0072173979 0.036284309 -0.059999999)
(6.2783723e-10 0.036995161 -0.059999999)
(-0.026159529 0.026159529 -0.059999999)
(-0.030760352 0.02055341 -0.059999999)
(0.0072173979 -0.036284309 -0.059999999)
(0.014157438 0.034179073 -0.059999999)
(-0.02055341 0.030760352 -0.059999999)
(6.2783723e-10 -0.036995161 -0.059999999)
(0.02055341 0.030760352 -0.059999999)
(-0.014157436 0.034179073 -0.059999999)
(-0.007217397 -0.036284309 -0.059999999)
(0.026159529 0.026159529 -0.059999999)
(-0.007217397 0.036284309 -0.059999999)
(-0.014157436 -0.034179073 -0.059999999)
(0.030760352 0.02055341 -0.059999999)
(-0.02055341 -0.030760352 -0.059999999)
(0.034179073 0.014157437 -0.059999999)
(-0.026159529 -0.026159529 -0.059999999)
(0.036284309 0.0072173974 -0.059999999)
(-0.030760352 -0.02055341 -0.059999999)
(0.036995161 2.0625949e-17 -0.059999999)
(-0.034179073 -0.014157437 -0.059999999)
(0.036284309 -0.0072173974 -0.059999999)
(-0.036284309 -0.0072173974 -0.059999999)
(0.034179073 -0.014157437 -0.059999999)
(-0.036995161 2.0625949e-17 -0.059999999)
(0.030760352 -0.02055341 -0.059999999)
(-0.036284309 0.0072173974 -0.059999999)
(0.026159529 -0.026159529 -0.059999999)
(-0.034179073 0.014157437 -0.059999999)
(0.0056491247 0.02840006 -0.059999999)
(6.2783723e-10 0.028956451 -0.059999999)
(0.011081157 0.026752273 -0.059999999)
(0.016087342 0.024076412 -0.059999999)
(0.020475304 0.020475304 -0.059999999)
(0.02407641 0.016087342 -0.059999999)
(0.026752273 0.011081156 -0.059999999)
(0.02840006 0.0056491243 -0.059999999)
(0.028956451 2.0625949e-17 -0.059999999)
(0.02840006 -0.0056491243 -0.059999999)
(0.026752273 -0.011081156 -0.059999999)
(0.02407641 -0.016087342 -0.059999999)
(0.020475304 -0.020475304 -0.059999999)
(0.016087342 -0.02407641 -0.059999999)
(0.011081157 -0.026752273 -0.059999999)
(0.0056491247 -0.02840006 -0.059999999)
(6.2783723e-10 -0.028956451 -0.059999999)
(-0.0056491229 -0.02840006 -0.059999999)
(-0.011081156 -0.026752273 -0.059999999)
(-0.016087344 -0.02407641 -0.059999999)
(-0.020475304 -0.020475304 -0.059999999)
(-0.02407641 -0.016087342 -0.059999999)
(-0.028956451 2.0625949e-17 -0.059999999)
(-0.02840006 0.0056491243 -0.059999999)
(-0.026752273 0.011081156 -0.059999999)
(-0.02407641 0.016087342 -0.059999999)
(-0.020475304 0.020475304 -0.059999999)
(-0.016087342 0.02407641 -0.059999999)
(-0.011081156 0.026752273 -0.059999999)
(-0.0056491229 0.02840006 -0.059999999)
(0.020917743 2.0625949e-17 -0.055)
(0.020515816 0.0040808511 -0.055)
(-0.008004874 0.019325476 -0.055)
(-0.0040808478 0.020515813 -0.055)
(2.8742961e-09 0.020917742 -0.055)
(0.0040808544 0.020515813 -0.055)
(0.0080048796 0.019325474 -0.055)
(0.011621277 0.01739247 -0.055)
(0.01479108 0.014791078 -0.055)
(0.01739247 0.011621275 -0.055)
(0.019325478 0.0080048759 -0.055)
(0.020515816 -0.0040808511 -0.055)
(0.019325476 -0.0080048749 -0.055)
(0.01739247 -0.011621275 -0.055)
(0.014791081 -0.014791078 -0.055)
(0.011621276 -0.017392468 -0.055)
(0.0080048786 -0.019325476 -0.055)
(0.0040808544 -0.020515813 -0.055)
(2.8742961e-09 -0.020917742 -0.055)
(-0.0040808478 -0.020515813 -0.055)
(-0.008004874 -0.019325476 -0.055)
(-0.011621273 -0.017392468 -0.055)
(-0.014791076 -0.014791078 -0.055)
(-0.017392464 -0.011621275 -0.055)
(-0.019325472 -0.0080048759 -0.055)
(-0.020515811 -0.0040808511 -0.055)
(-0.02091774 2.0625949e-17 -0.055)
(-0.020515811 0.0040808511 -0.055)
(-0.019325472 0.0080048749 -0.055)
(-0.017392466 0.011621275 -0.055)
(-0.014791076 0.014791078 -0.055)
(-0.011621272 0.017392468 -0.055)
(0.02055341 -0.030760352 -0.044999998)
(0.014157437 -0.034179073 -0.044999998)
(0.0072173974 0.036284309 -0.044999998)
(0 0.036995161 -0.044999998)
(0.014157437 0.034179073 -0.044999998)
(0.02055341 0.030760352 -0.044999998)
(0.026159529 0.026159529 -0.044999998)
(0.030760352 0.02055341 -0.044999998)
(0.034179073 0.014157437 -0.044999998)
(0.036284309 0.0072173974 -0.044999998)
(0.036995161 0 -0.044999998)
(0.036284309 -0.0072173974 -0.044999998)
(0.034179073 -0.014157437 -0.044999998)
(0.030760352 -0.02055341 -0.044999998)
(0.026159529 -0.026159529 -0.044999998)
(0.0072173974 -0.036284309 -0.044999998)
(0 -0.036995161 -0.044999998)
(-0.0072173974 -0.036284309 -0.044999998)
(-0.014157437 -0.034179073 -0.044999998)
(-0.02055341 -0.030760352 -0.044999998)
(-0.026159529 -0.026159529 -0.044999998)
(-0.030760352 -0.02055341 -0.044999998)
(-0.034179073 -0.014157437 -0.044999998)
(-0.036284309 -0.0072173974 -0.044999998)
(-0.036995161 0 -0.044999998)
(-0.036284309 0.0072173974 -0.044999998)
(-0.034179073 0.014157437 -0.044999998)
(-0.030760352 0.02055341 -0.044999998)
(-0.026159529 0.026159529 -0.044999998)
(-0.02055341 0.030760352 -0.044999998)
(-0.014157437 0.034179073 -0.044999998)
(-0.0072173974 0.036284309 -0.044999998)
(-0.028400058 -0.0056491243 -0.049999997)
(-0.026752271 -0.011081156 -0.049999997)
(0.020515816 0.0040808511 -0.049999997)
(0.020917743 2.0625949e-17 -0.049999997)
(0.026752276 -0.011081156 -0.049999997)
(0.028400064 -0.0056491243 -0.049999997)
(-0.028956449 2.0625949e-17 -0.049999997)
(0.024076412 -0.016087342 -0.049999997)
(-0.028400058 0.0056491243 -0.049999997)
(0.020475306 -0.020475304 -0.049999997)
(-0.026752271 0.011081156 -0.049999997)
(0.016087344 -0.02407641 -0.049999997)
(-0.024076406 0.016087342 -0.049999997)
(0.01108116 -0.026752273 -0.049999997)
(0.0056491271 0.02840006 -0.049999997)
(2.8141132e-09 0.028956451 -0.049999997)
(-0.020475302 0.020475304 -0.049999997)
(0.0056491271 -0.02840006 -0.049999997)
(0.01108116 0.026752273 -0.049999997)
(-0.01608734 0.02407641 -0.049999997)
(2.8141132e-09 -0.028956451 -0.049999997)
(0.016087344 0.024076412 -0.049999997)
(-0.011081154 0.026752273 -0.049999997)
(-0.0056491205 -0.02840006 -0.049999997)
(0.020475306 0.020475304 -0.049999997)
(-0.0056491205 0.02840006 -0.049999997)
(-0.011081154 -0.026752273 -0.049999997)
(0.024076412 0.016087342 -0.049999997)
(-0.01608734 -0.02407641 -0.049999997)
(0.026752276 0.011081156 -0.049999997)
(-0.020475302 -0.020475304 -0.049999997)
(0.028400064 0.0056491243 -0.049999997)
(-0.024076406 -0.016087342 -0.049999997)
(0.028956452 2.0625949e-17 -0.049999997)
(0.0040808544 0.020515813 -0.049999997)
(2.8742961e-09 0.020917742 -0.049999997)
(0.0080048796 0.019325474 -0.049999997)
(0.011621277 0.01739247 -0.049999997)
(0.01479108 0.014791078 -0.049999997)
(0.01739247 0.011621275 -0.049999997)
(0.019325478 0.0080048759 -0.049999997)
(0.020515816 -0.0040808511 -0.049999997)
(0.019325476 -0.0080048749 -0.049999997)
(0.01739247 -0.011621275 -0.049999997)
(0.014791081 -0.014791078 -0.049999997)
(0.011621276 -0.017392468 -0.049999997)
(0.0080048786 -0.019325476 -0.049999997)
(0.0040808544 -0.020515813 -0.049999997)
(2.8742961e-09 -0.020917742 -0.049999997)
(-0.0040808478 -0.020515813 -0.049999997)
(-0.008004874 -0.019325476 -0.049999997)
(-0.011621273 -0.017392468 -0.049999997)
(-0.014791076 -0.014791078 -0.049999997)
(-0.017392464 -0.011621275 -0.049999997)
(-0.019325472 -0.0080048759 -0.049999997)
(-0.020515811 -0.0040808511 -0.049999997)
(-0.02091774 2.0625949e-17 -0.049999997)
(-0.020515811 0.0040808511 -0.049999997)
(-0.019325472 0.0080048749 -0.049999997)
(-0.017392466 0.011621275 -0.049999997)
(-0.014791076 0.014791078 -0.049999997)
(-0.011621272 0.017392468 -0.049999997)
(-0.008004874 0.019325476 -0.049999997)
(-0.0040808478 0.020515813 -0.049999997)
(0 0.02025 -0.052499998)
(0.0039505791 0.019860903 -0.052499998)
(0.0077493405 0.018708561 -0.052499998)
(0.011250298 0.01683726 -0.052499998)
(0.014318911 0.014318911 -0.052499998)
(0.01683726 0.011250298 -0.052499998)
(0.018708561 0.0077493405 -0.052499998)
(0.019860903 0.0039505791 -0.052499998)
(0.02025 0 -0.052499998)
(0.019860903 -0.0039505791 -0.052499998)
(0.018708561 -0.0077493405 -0.052499998)
(0.01683726 -0.011250298 -0.052499998)
(0.014318911 -0.014318911 -0.052499998)
(0.011250298 -0.01683726 -0.052499998)
(0.0077493405 -0.018708561 -0.052499998)
(0.0039505791 -0.019860903 -0.052499998)
(0 -0.02025 -0.052499998)
(-0.0039505791 -0.019860903 -0.052499998)
(-0.0077493405 -0.018708561 -0.052499998)
(-0.011250298 -0.01683726 -0.052499998)
(-0.014318911 -0.014318911 -0.052499998)
(-0.01683726 -0.011250298 -0.052499998)
(-0.018708561 -0.0077493405 -0.052499998)
(-0.019860903 -0.0039505791 -0.052499998)
(-0.02025 0 -0.052499998)
(-0.019860903 0.0039505791 -0.052499998)
(-0.018708561 0.0077493405 -0.052499998)
(-0.01683726 0.011250298 -0.052499998)
(-0.014318911 0.014318911 -0.052499998)
(-0.011250298 0.01683726 -0.052499998)
(-0.0077493405 0.018708561 -0.052499998)
(-0.0039505791 0.019860903 -0.052499998)
)


// edges:

320
(
(0 1)
(2 3)
(1 4)
(5 2)
(4 6)
(7 5)
(6 8)
(9 7)
(8 10)
(11 9)
(10 12)
(13 11)
(12 14)
(15 13)
(14 16)
(17 15)
(16 18)
(19 17)
(18 20)
(21 19)
(20 22)
(23 21)
(22 24)
(25 23)
(24 26)
(27 25)
(26 28)
(29 27)
(28 30)
(31 29)
(30 32)
(33 31)
(32 34)
(35 33)
(34 36)
(37 35)
(36 38)
(39 37)
(38 40)
(41 39)
(40 42)
(43 41)
(42 44)
(45 43)
(44 46)
(47 45)
(46 48)
(49 47)
(48 50)
(51 49)
(50 52)
(53 51)
(52 54)
(55 53)
(54 56)
(57 55)
(56 58)
(59 57)
(58 60)
(61 59)
(62 60)
(63 64)
(0 62)
(65 66)
(64 67)
(67 68)
(69 65)
(70 69)
(68 71)
(71 72)
(73 70)
(72 74)
(75 73)
(76 75)
(74 77)
(77 78)
(79 76)
(80 79)
(78 81)
(81 82)
(83 80)
(84 83)
(82 85)
(85 86)
(86 87)
(87 84)
(66 88)
(89 63)
(90 89)
(88 91)
(92 90)
(91 93)
(94 92)
(93 94)
(95 61)
(3 95)
(96 97)
(98 99)
(100 101)
(102 103)
(104 96)
(105 100)
(106 102)
(107 104)
(108 105)
(109 106)
(110 107)
(111 108)
(112 109)
(113 110)
(114 111)
(101 112)
(115 113)
(116 114)
(117 115)
(118 116)
(119 117)
(120 118)
(121 119)
(122 120)
(123 121)
(124 122)
(125 123)
(126 124)
(127 125)
(128 126)
(129 127)
(97 128)
(103 129)
(130 131)
(132 130)
(133 132)
(134 133)
(135 134)
(136 135)
(137 136)
(138 137)
(139 138)
(140 139)
(141 140)
(142 141)
(143 142)
(144 143)
(145 144)
(146 145)
(147 146)
(148 147)
(149 148)
(150 149)
(151 150)
(98 151)
(152 99)
(153 152)
(154 153)
(155 154)
(156 155)
(157 156)
(158 157)
(159 158)
(131 159)
(160 161)
(162 163)
(163 164)
(164 165)
(165 166)
(166 167)
(167 168)
(168 169)
(169 170)
(170 161)
(160 171)
(171 172)
(172 173)
(173 174)
(174 175)
(175 176)
(176 177)
(177 178)
(178 179)
(179 180)
(180 181)
(181 182)
(183 184)
(182 183)
(184 185)
(185 186)
(186 187)
(187 188)
(188 189)
(189 190)
(190 191)
(191 162)
(192 193)
(194 195)
(196 194)
(197 196)
(198 197)
(199 198)
(200 199)
(201 200)
(202 201)
(203 202)
(204 203)
(205 204)
(206 205)
(192 206)
(207 193)
(208 207)
(209 208)
(210 209)
(211 210)
(212 211)
(213 212)
(214 213)
(215 214)
(216 215)
(217 216)
(218 217)
(219 218)
(220 219)
(221 220)
(222 221)
(223 222)
(195 223)
(224 225)
(226 227)
(228 229)
(230 224)
(231 228)
(232 230)
(233 231)
(234 232)
(235 233)
(236 234)
(237 235)
(238 239)
(240 236)
(241 237)
(242 238)
(243 240)
(244 241)
(245 242)
(246 243)
(247 244)
(248 245)
(249 246)
(250 247)
(251 248)
(239 249)
(252 250)
(253 251)
(254 252)
(255 253)
(256 254)
(257 255)
(225 256)
(229 257)
(258 259)
(260 258)
(261 260)
(262 261)
(263 262)
(264 263)
(226 264)
(265 227)
(266 265)
(267 266)
(268 267)
(269 268)
(270 269)
(271 270)
(272 271)
(273 272)
(274 273)
(275 274)
(276 275)
(277 276)
(278 277)
(279 278)
(280 279)
(281 280)
(282 281)
(283 282)
(284 283)
(285 284)
(286 285)
(287 286)
(259 287)
(288 289)
(289 290)
(290 291)
(291 292)
(292 293)
(293 294)
(294 295)
(295 296)
(296 297)
(297 298)
(298 299)
(299 300)
(300 301)
(301 302)
(302 303)
(303 304)
(304 305)
(305 306)
(306 307)
(307 308)
(308 309)
(309 310)
(310 311)
(311 312)
(312 313)
(313 314)
(314 315)
(315 316)
(316 317)
(317 318)
(318 319)
(319 288)
)

// * * * * * * * * * * * * * * * * * * * * * * * * * * * * * * * * * * * * * //


// ************************************************************************* //
